<?xml version="1.0" encoding="UTF-8"?>

<!-- generated on 2026-05-15 01:59:30.643258 by Eclipse SUMO randomTrips.py v1_26_0+0000-fa7df22d7f1
<configuration>
    <net-file value="C:\Users\Bhanu\TCS\SingleJunction\network\city.net.xml"/>
    <route-file value="C:\Users\Bhanu\TCS\SingleJunction\routes\routes.rou.xml"/>
    <seed value="71010"/>
    <end value="120.0"/>
    <period value="1.0"/>
    <binomial value="2"/>
</configuration>
-->

<routes xmlns:xsi="http://www.w3.org/2001/XMLSchema-instance" xsi:noNamespaceSchemaLocation="http://sumo.dlr.de/xsd/routes_file.xsd">
    <trip id="0" depart="0.00" from="-E3" to="E1"/>
    <trip id="1" depart="1.00" from="-E1" to="E0"/>
    <trip id="2" depart="3.00" from="-E3" to="E0"/>
    <trip id="3" depart="4.00" from="-E0" to="E2"/>
    <trip id="4" depart="5.00" from="-E2" to="E0"/>
    <trip id="5" depart="7.00" from="-E3" to="E1"/>
    <trip id="6" depart="9.00" from="-E0" to="E3"/>
    <trip id="7" depart="10.00" from="-E1" to="E3"/>
    <trip id="8" depart="10.00" from="-E1" to="E0"/>
    <trip id="9" depart="11.00" from="-E0" to="E3"/>
    <trip id="10" depart="11.00" from="-E0" to="E1"/>
    <trip id="11" depart="12.00" from="-E0" to="E2"/>
    <trip id="12" depart="13.00" from="-E1" to="E3"/>
    <trip id="13" depart="15.00" from="-E3" to="E1"/>
    <trip id="14" depart="16.00" from="-E0" to="E3"/>
    <trip id="15" depart="17.00" from="-E2" to="E1"/>
    <trip id="16" depart="18.00" from="-E1" to="E3"/>
    <trip id="17" depart="19.00" from="-E1" to="E2"/>
    <trip id="18" depart="20.00" from="-E0" to="E1"/>
    <trip id="19" depart="21.00" from="-E3" to="E2"/>
    <trip id="20" depart="22.00" from="-E3" to="E1"/>
    <trip id="21" depart="22.00" from="-E2" to="E3"/>
    <trip id="22" depart="23.00" from="-E2" to="E0"/>
    <trip id="23" depart="23.00" from="-E1" to="E0"/>
    <trip id="24" depart="24.00" from="-E2" to="E3"/>
    <trip id="25" depart="25.00" from="-E0" to="E3"/>
    <trip id="26" depart="25.00" from="-E0" to="E1"/>
    <trip id="27" depart="26.00" from="-E2" to="E1"/>
    <trip id="28" depart="28.00" from="-E0" to="E3"/>
    <trip id="29" depart="30.00" from="-E1" to="E0"/>
    <trip id="30" depart="32.00" from="-E1" to="E0"/>
    <trip id="31" depart="32.00" from="-E2" to="E3"/>
    <trip id="32" depart="33.00" from="-E3" to="E0"/>
    <trip id="33" depart="34.00" from="-E3" to="E1"/>
    <trip id="34" depart="35.00" from="-E1" to="E3"/>
    <trip id="35" depart="38.00" from="-E0" to="E1"/>
    <trip id="36" depart="40.00" from="-E0" to="E2"/>
    <trip id="37" depart="40.00" from="-E1" to="E0"/>
    <trip id="38" depart="41.00" from="-E3" to="E1"/>
    <trip id="39" depart="41.00" from="-E1" to="E3"/>
    <trip id="40" depart="42.00" from="-E2" to="E3"/>
    <trip id="41" depart="45.00" from="-E0" to="E3"/>
    <trip id="42" depart="45.00" from="-E1" to="E0"/>
    <trip id="43" depart="46.00" from="-E2" to="E0"/>
    <trip id="44" depart="46.00" from="-E2" to="E3"/>
    <trip id="45" depart="47.00" from="-E1" to="E2"/>
    <trip id="46" depart="47.00" from="-E3" to="E1"/>
    <trip id="47" depart="49.00" from="-E0" to="E2"/>
    <trip id="48" depart="50.00" from="-E2" to="E3"/>
    <trip id="49" depart="50.00" from="-E3" to="E0"/>
    <trip id="50" depart="52.00" from="-E2" to="E0"/>
    <trip id="51" depart="52.00" from="-E2" to="E1"/>
    <trip id="52" depart="53.00" from="-E3" to="E0"/>
    <trip id="53" depart="55.00" from="-E3" to="E2"/>
    <trip id="54" depart="58.00" from="-E2" to="E0"/>
    <trip id="55" depart="64.00" from="-E3" to="E0"/>
    <trip id="56" depart="65.00" from="-E3" to="E2"/>
    <trip id="57" depart="66.00" from="-E0" to="E3"/>
    <trip id="58" depart="67.00" from="-E1" to="E0"/>
    <trip id="59" depart="67.00" from="-E0" to="E1"/>
    <trip id="60" depart="68.00" from="-E0" to="E2"/>
    <trip id="61" depart="69.00" from="-E1" to="E3"/>
    <trip id="62" depart="72.00" from="-E1" to="E3"/>
    <trip id="63" depart="73.00" from="-E2" to="E3"/>
    <trip id="64" depart="73.00" from="-E0" to="E1"/>
    <trip id="65" depart="74.00" from="-E1" to="E3"/>
    <trip id="66" depart="74.00" from="-E3" to="E1"/>
    <trip id="67" depart="76.00" from="-E2" to="E1"/>
    <trip id="68" depart="76.00" from="-E2" to="E3"/>
    <trip id="69" depart="77.00" from="-E1" to="E0"/>
    <trip id="70" depart="77.00" from="-E3" to="E0"/>
    <trip id="71" depart="79.00" from="-E3" to="E0"/>
    <trip id="72" depart="79.00" from="-E1" to="E3"/>
    <trip id="73" depart="80.00" from="-E0" to="E3"/>
    <trip id="74" depart="81.00" from="-E3" to="E1"/>
    <trip id="75" depart="81.00" from="-E0" to="E1"/>
    <trip id="76" depart="82.00" from="-E2" to="E0"/>
    <trip id="77" depart="84.00" from="-E0" to="E3"/>
    <trip id="78" depart="84.00" from="-E2" to="E3"/>
    <trip id="79" depart="85.00" from="-E2" to="E3"/>
    <trip id="80" depart="87.00" from="-E0" to="E1"/>
    <trip id="81" depart="88.00" from="-E1" to="E3"/>
    <trip id="82" depart="88.00" from="-E1" to="E2"/>
    <trip id="83" depart="90.00" from="-E1" to="E2"/>
    <trip id="84" depart="92.00" from="-E2" to="E3"/>
    <trip id="85" depart="94.00" from="-E3" to="E1"/>
    <trip id="86" depart="95.00" from="-E2" to="E3"/>
    <trip id="87" depart="96.00" from="-E0" to="E1"/>
    <trip id="88" depart="96.00" from="-E0" to="E3"/>
    <trip id="89" depart="97.00" from="-E0" to="E3"/>
    <trip id="90" depart="99.00" from="-E3" to="E1"/>
    <trip id="91" depart="100.00" from="-E0" to="E2"/>
    <trip id="92" depart="100.00" from="-E0" to="E3"/>
    <trip id="93" depart="101.00" from="-E0" to="E3"/>
    <trip id="94" depart="103.00" from="-E2" to="E0"/>
    <trip id="95" depart="104.00" from="-E1" to="E2"/>
    <trip id="96" depart="104.00" from="-E0" to="E3"/>
    <trip id="97" depart="107.00" from="-E3" to="E0"/>
    <trip id="98" depart="107.00" from="-E3" to="E1"/>
    <trip id="99" depart="108.00" from="-E1" to="E3"/>
    <trip id="100" depart="109.00" from="-E3" to="E1"/>
    <trip id="101" depart="109.00" from="-E3" to="E2"/>
    <trip id="102" depart="110.00" from="-E1" to="E0"/>
    <trip id="103" depart="111.00" from="-E0" to="E1"/>
    <trip id="104" depart="112.00" from="-E1" to="E3"/>
    <trip id="105" depart="115.00" from="-E3" to="E2"/>
    <trip id="106" depart="116.00" from="-E0" to="E1"/>
    <trip id="107" depart="118.00" from="-E2" to="E0"/>
    <trip id="108" depart="118.00" from="-E1" to="E0"/>
</routes>
