<?xml version="1.0" encoding="UTF-8"?>

<!-- generated on 2026-04-18T14:01:26.275763+05:30 by Eclipse SUMO duarouter 1.26.0
<duarouterConfiguration xmlns:xsi="http://www.w3.org/2001/XMLSchema-instance" xsi:noNamespaceSchemaLocation="http://sumo.dlr.de/xsd/duarouterConfiguration.xsd">

    <input>
        <net-file value="network/city.net.xml"/>
        <route-files value="data/trips.trips.xml"/>
    </input>

    <output>
        <output-file value="routes/updated.rou.xml"/>
    </output>

</duarouterConfiguration>
-->

<routes xmlns:xsi="http://www.w3.org/2001/XMLSchema-instance" xsi:noNamespaceSchemaLocation="http://sumo.dlr.de/xsd/routes_file.xsd">
    <vType id="car" vClass="passenger" color="0,102,204" maxSpeed="22.2" accel="2.5"/>
    <vType id="bike" vClass="motorcycle" color="255,69,0" maxSpeed="25" accel="3.0"/>
    <vType id="scooter" vClass="motorcycle" color="255,140,0" maxSpeed="19.4" accel="2.5"/>
    <vType id="auto" vClass="taxi" color="255,215,0" maxSpeed="13.8" accel="2.0"/>
    <vType id="jeep" vClass="passenger" color="34,139,34" maxSpeed="22.2"/>
    <vType id="van" vClass="passenger" color="169,169,169" maxSpeed="19.4"/>
    <vType id="public_van" vClass="passenger" color="0,255,255" maxSpeed="19.4"/>
    <vType id="school_van" vClass="passenger" color="255,165,0" maxSpeed="16.6"/>
    <vType id="school_bus" vClass="bus" color="255,223,0" maxSpeed="16.6"/>
    <vType id="truck" vClass="truck" color="139,69,19" maxSpeed="16.6"/>
    <vType id="oil_tanker" vClass="truck" color="0,0,0" maxSpeed="15"/>
    <vType id="water_tanker" vClass="truck" color="30,144,255" maxSpeed="15"/>
    <vType id="milk_tanker" vClass="truck" color="255,255,255" maxSpeed="15"/>
    <vType id="ambulance" vClass="emergency" color="255,0,0" maxSpeed="27.7" accel="3.5"/>
    <vehicle id="C00" depart="0.00" type="car">
        <route edges="-E2 E0"/>
    </vehicle>
    <vehicle id="C11" depart="1.00" type="car">
        <route edges="-E1 E0"/>
    </vehicle>
    <vehicle id="R22" depart="2.00" type="auto">
        <route edges="-E3 E0"/>
    </vehicle>
    <vehicle id="33" depart="3.00" type="bike">
        <route edges="-E1 E0"/>
    </vehicle>
    <vehicle id="V44" depart="4.00" type="school_van">
        <route edges="-E0 E2"/>
    </vehicle>
    <vehicle id="S55" depart="5.00" type="scooter">
        <route edges="-E0 E2"/>
    </vehicle>
    <vehicle id="V66" depart="6.00" type="jeep">
        <route edges="-E3 E0"/>
    </vehicle>
    <vehicle id="T77" depart="7.00" type="truck">
        <route edges="-E3 E2"/>
    </vehicle>
    <vehicle id="R88" depart="8.00" type="auto">
        <route edges="-E1 E0"/>
    </vehicle>
    <vehicle id="C99" depart="9.00" type="car">
        <route edges="-E3 E1"/>
    </vehicle>
    <vehicle id="S1010" depart="10.00" type="scooter">
        <route edges="-E3 E2"/>
    </vehicle>
    <vehicle id="V1111" depart="11.00" type="van">
        <route edges="-E3 E2"/>
    </vehicle>
    <vehicle id="1212" depart="12.00" type="bike">
        <route edges="-E2 E3"/>
    </vehicle>
    <vehicle id="V1313" depart="13.00" type="van">
        <route edges="-E1 E2"/>
    </vehicle>
    <vehicle id="C1414" depart="14.00" type="car">
        <route edges="-E3 E2"/>
    </vehicle>
    <vehicle id="A1515" depart="15.00" type="ambulance">
        <route edges="-E3 E2"/>
    </vehicle>
    <vehicle id="T1616" depart="16.00" type="truck">
        <route edges="-E2 E0"/>
    </vehicle>
    <vehicle id="C1717" depart="17.00" type="car">
        <route edges="-E0 E1"/>
    </vehicle>
    <vehicle id="B1818" depart="18.00" type="school_bus">
        <route edges="-E0 E1"/>
    </vehicle>
    <vehicle id="T1919" depart="19.00" type="truck">
        <route edges="-E2 E1"/>
    </vehicle>
    <vehicle id="C2020" depart="20.00" type="car">
        <route edges="-E1 E0"/>
    </vehicle>
    <vehicle id="C2121" depart="21.00" type="car">
        <route edges="-E1 E3"/>
    </vehicle>
    <vehicle id="2222" depart="22.00" type="bike">
        <route edges="-E0 E2"/>
    </vehicle>
    <vehicle id="TK2323" depart="23.00" type="water_tanker">
        <route edges="-E0 E1"/>
    </vehicle>
    <vehicle id="C2424" depart="24.00" type="car">
        <route edges="-E3 E2"/>
    </vehicle>
    <vehicle id="2525" depart="25.00" type="bike">
        <route edges="-E0 E3"/>
    </vehicle>
    <vehicle id="R2626" depart="26.00" type="auto">
        <route edges="-E3 E1"/>
    </vehicle>
    <vehicle id="C2727" depart="27.00" type="car">
        <route edges="-E2 E1"/>
    </vehicle>
    <vehicle id="TK2828" depart="28.00" type="milk_tanker">
        <route edges="-E3 E1"/>
    </vehicle>
    <vehicle id="2929" depart="29.00" type="bike">
        <route edges="-E1 E0"/>
    </vehicle>
    <vehicle id="C3030" depart="30.00" type="car">
        <route edges="-E2 E1"/>
    </vehicle>
    <vehicle id="T3131" depart="31.00" type="truck">
        <route edges="-E2 E3"/>
    </vehicle>
    <vehicle id="C3232" depart="32.00" type="car">
        <route edges="-E1 E0"/>
    </vehicle>
    <vehicle id="3333" depart="33.00" type="bike">
        <route edges="-E3 E2"/>
    </vehicle>
    <vehicle id="R3434" depart="34.00" type="auto">
        <route edges="-E0 E2"/>
    </vehicle>
    <vehicle id="V3535" depart="35.00" type="school_van">
        <route edges="-E3 E1"/>
    </vehicle>
    <vehicle id="3636" depart="36.00" type="bike">
        <route edges="-E0 E1"/>
    </vehicle>
    <vehicle id="A3737" depart="37.00" type="ambulance">
        <route edges="-E3 E2"/>
    </vehicle>
    <vehicle id="R3838" depart="38.00" type="auto">
        <route edges="-E0 E2"/>
    </vehicle>
    <vehicle id="R3939" depart="39.00" type="auto">
        <route edges="-E1 E2"/>
    </vehicle>
    <vehicle id="4040" depart="40.00" type="bike">
        <route edges="-E0 E1"/>
    </vehicle>
    <vehicle id="V4141" depart="41.00" type="van">
        <route edges="-E1 E3"/>
    </vehicle>
    <vehicle id="A4242" depart="42.00" type="ambulance">
        <route edges="-E3 E1"/>
    </vehicle>
    <vehicle id="R4343" depart="43.00" type="auto">
        <route edges="-E2 E0"/>
    </vehicle>
    <vehicle id="V4444" depart="44.00" type="van">
        <route edges="-E1 E2"/>
    </vehicle>
    <vehicle id="B4545" depart="45.00" type="school_bus">
        <route edges="-E2 E0"/>
    </vehicle>
    <vehicle id="R4646" depart="46.00" type="auto">
        <route edges="-E3 E2"/>
    </vehicle>
    <vehicle id="A4747" depart="47.00" type="ambulance">
        <route edges="-E3 E2"/>
    </vehicle>
    <vehicle id="C4848" depart="48.00" type="car">
        <route edges="-E0 E1"/>
    </vehicle>
    <vehicle id="4949" depart="49.00" type="bike">
        <route edges="-E0 E3"/>
    </vehicle>
    <vehicle id="5050" depart="50.00" type="bike">
        <route edges="-E1 E0"/>
    </vehicle>
    <vehicle id="R5151" depart="51.00" type="auto">
        <route edges="-E0 E1"/>
    </vehicle>
    <vehicle id="5252" depart="52.00" type="bike">
        <route edges="-E0 E3"/>
    </vehicle>
    <vehicle id="V5353" depart="53.00" type="jeep">
        <route edges="-E3 E0"/>
    </vehicle>
    <vehicle id="5454" depart="54.00" type="bike">
        <route edges="-E1 E2"/>
    </vehicle>
    <vehicle id="A5555" depart="55.00" type="ambulance">
        <route edges="-E1 E3"/>
    </vehicle>
    <vehicle id="B5656" depart="56.00" type="school_bus">
        <route edges="-E1 E0"/>
    </vehicle>
    <vehicle id="V5757" depart="57.00" type="van">
        <route edges="-E0 E1"/>
    </vehicle>
    <vehicle id="5858" depart="58.00" type="bike">
        <route edges="-E3 E2"/>
    </vehicle>
    <vehicle id="V5959" depart="59.00" type="van">
        <route edges="-E1 E2"/>
    </vehicle>
    <vehicle id="S6060" depart="60.00" type="scooter">
        <route edges="-E1 E2"/>
    </vehicle>
    <vehicle id="V6161" depart="61.00" type="van">
        <route edges="-E0 E2"/>
    </vehicle>
    <vehicle id="C6262" depart="62.00" type="car">
        <route edges="-E0 E3"/>
    </vehicle>
    <vehicle id="R6363" depart="63.00" type="auto">
        <route edges="-E3 E0"/>
    </vehicle>
    <vehicle id="V6464" depart="64.00" type="jeep">
        <route edges="-E0 E2"/>
    </vehicle>
    <vehicle id="C6565" depart="65.00" type="car">
        <route edges="-E3 E2"/>
    </vehicle>
    <vehicle id="S6666" depart="66.00" type="scooter">
        <route edges="-E1 E3"/>
    </vehicle>
    <vehicle id="6767" depart="67.00" type="bike">
        <route edges="-E3 E0"/>
    </vehicle>
    <vehicle id="6868" depart="68.00" type="bike">
        <route edges="-E0 E1"/>
    </vehicle>
    <vehicle id="C6969" depart="69.00" type="car">
        <route edges="-E3 E0"/>
    </vehicle>
    <vehicle id="C7070" depart="70.00" type="car">
        <route edges="-E3 E0"/>
    </vehicle>
    <vehicle id="R7171" depart="71.00" type="auto">
        <route edges="-E0 E1"/>
    </vehicle>
    <vehicle id="C7272" depart="72.00" type="car">
        <route edges="-E0 E3"/>
    </vehicle>
    <vehicle id="V7373" depart="73.00" type="van">
        <route edges="-E1 E3"/>
    </vehicle>
    <vehicle id="7474" depart="74.00" type="bike">
        <route edges="-E2 E0"/>
    </vehicle>
    <vehicle id="C7575" depart="75.00" type="car">
        <route edges="-E3 E0"/>
    </vehicle>
    <vehicle id="V7676" depart="76.00" type="public_van">
        <route edges="-E1 E0"/>
    </vehicle>
    <vehicle id="R7777" depart="77.00" type="auto">
        <route edges="-E1 E0"/>
    </vehicle>
    <vehicle id="S7878" depart="78.00" type="scooter">
        <route edges="-E1 E3"/>
    </vehicle>
    <vehicle id="7979" depart="79.00" type="bike">
        <route edges="-E1 E3"/>
    </vehicle>
    <vehicle id="8080" depart="80.00" type="bike">
        <route edges="-E0 E1"/>
    </vehicle>
    <vehicle id="8181" depart="81.00" type="bike">
        <route edges="-E3 E2"/>
    </vehicle>
    <vehicle id="V8282" depart="82.00" type="jeep">
        <route edges="-E0 E2"/>
    </vehicle>
    <vehicle id="8383" depart="83.00" type="bike">
        <route edges="-E2 E3"/>
    </vehicle>
    <vehicle id="C8484" depart="84.00" type="car">
        <route edges="-E0 E3"/>
    </vehicle>
    <vehicle id="8585" depart="85.00" type="bike">
        <route edges="-E3 E0"/>
    </vehicle>
    <vehicle id="8686" depart="86.00" type="bike">
        <route edges="-E1 E2"/>
    </vehicle>
    <vehicle id="C8787" depart="87.00" type="car">
        <route edges="-E2 E3"/>
    </vehicle>
    <vehicle id="V8888" depart="88.00" type="school_van">
        <route edges="-E0 E2"/>
    </vehicle>
    <vehicle id="B8989" depart="89.00" type="school_bus">
        <route edges="-E0 E1"/>
    </vehicle>
    <vehicle id="A9090" depart="90.00" type="ambulance">
        <route edges="-E2 E1"/>
    </vehicle>
    <vehicle id="V9191" depart="91.00" type="van">
        <route edges="-E1 E3"/>
    </vehicle>
    <vehicle id="V9292" depart="92.00" type="jeep">
        <route edges="-E0 E1"/>
    </vehicle>
    <vehicle id="C9393" depart="93.00" type="car">
        <route edges="-E1 E3"/>
    </vehicle>
    <vehicle id="A9494" depart="94.00" type="ambulance">
        <route edges="-E1 E0"/>
    </vehicle>
    <vehicle id="R9595" depart="95.00" type="auto">
        <route edges="-E3 E2"/>
    </vehicle>
    <vehicle id="R9696" depart="96.00" type="auto">
        <route edges="-E2 E3"/>
    </vehicle>
    <vehicle id="S9797" depart="97.00" type="scooter">
        <route edges="-E2 E0"/>
    </vehicle>
    <vehicle id="C9898" depart="98.00" type="car">
        <route edges="-E3 E1"/>
    </vehicle>
    <vehicle id="R9999" depart="99.00" type="auto">
        <route edges="-E2 E3"/>
    </vehicle>
    <vehicle id="C100100" depart="100.00" type="car">
        <route edges="-E0 E2"/>
    </vehicle>
    <vehicle id="R101101" depart="101.00" type="auto">
        <route edges="-E1 E2"/>
    </vehicle>
    <vehicle id="102102" depart="102.00" type="bike">
        <route edges="-E2 E0"/>
    </vehicle>
    <vehicle id="B103103" depart="103.00" type="school_bus">
        <route edges="-E2 E1"/>
    </vehicle>
    <vehicle id="R104104" depart="104.00" type="auto">
        <route edges="-E1 E3"/>
    </vehicle>
    <vehicle id="B105105" depart="105.00" type="school_bus">
        <route edges="-E3 E0"/>
    </vehicle>
    <vehicle id="S106106" depart="106.00" type="scooter">
        <route edges="-E0 E3"/>
    </vehicle>
    <vehicle id="A107107" depart="107.00" type="ambulance">
        <route edges="-E2 E1"/>
    </vehicle>
    <vehicle id="108108" depart="108.00" type="bike">
        <route edges="-E1 E0"/>
    </vehicle>
    <vehicle id="109109" depart="109.00" type="bike">
        <route edges="-E0 E3"/>
    </vehicle>
    <vehicle id="C110110" depart="110.00" type="car">
        <route edges="-E3 E2"/>
    </vehicle>
    <vehicle id="R111111" depart="111.00" type="auto">
        <route edges="-E3 E2"/>
    </vehicle>
    <vehicle id="A112112" depart="112.00" type="ambulance">
        <route edges="-E1 E3"/>
    </vehicle>
    <vehicle id="B113113" depart="113.00" type="school_bus">
        <route edges="-E3 E0"/>
    </vehicle>
    <vehicle id="C114114" depart="114.00" type="car">
        <route edges="-E1 E2"/>
    </vehicle>
    <vehicle id="C115115" depart="115.00" type="car">
        <route edges="-E0 E3"/>
    </vehicle>
    <vehicle id="C116116" depart="116.00" type="car">
        <route edges="-E0 E2"/>
    </vehicle>
    <vehicle id="V117117" depart="117.00" type="van">
        <route edges="-E1 E3"/>
    </vehicle>
    <vehicle id="118118" depart="118.00" type="bike">
        <route edges="-E3 E1"/>
    </vehicle>
    <vehicle id="TK119119" depart="119.00" type="milk_tanker">
        <route edges="-E3 E0"/>
    </vehicle>
    <vehicle id="R120120" depart="120.00" type="auto">
        <route edges="-E0 E3"/>
    </vehicle>
    <vehicle id="121121" depart="121.00" type="bike">
        <route edges="-E3 E0"/>
    </vehicle>
    <vehicle id="V122122" depart="122.00" type="jeep">
        <route edges="-E1 E3"/>
    </vehicle>
    <vehicle id="123123" depart="123.00" type="bike">
        <route edges="-E3 E1"/>
    </vehicle>
    <vehicle id="A124124" depart="124.00" type="ambulance">
        <route edges="-E2 E1"/>
    </vehicle>
    <vehicle id="125125" depart="125.00" type="bike">
        <route edges="-E3 E2"/>
    </vehicle>
    <vehicle id="C126126" depart="126.00" type="car">
        <route edges="-E3 E0"/>
    </vehicle>
    <vehicle id="T127127" depart="127.00" type="truck">
        <route edges="-E3 E0"/>
    </vehicle>
    <vehicle id="TK128128" depart="128.00" type="oil_tanker">
        <route edges="-E3 E1"/>
    </vehicle>
    <vehicle id="C129129" depart="129.00" type="car">
        <route edges="-E0 E1"/>
    </vehicle>
    <vehicle id="R130130" depart="130.00" type="auto">
        <route edges="-E2 E1"/>
    </vehicle>
    <vehicle id="C131131" depart="131.00" type="car">
        <route edges="-E1 E2"/>
    </vehicle>
    <vehicle id="V132132" depart="132.00" type="jeep">
        <route edges="-E1 E2"/>
    </vehicle>
    <vehicle id="T133133" depart="133.00" type="truck">
        <route edges="-E0 E3"/>
    </vehicle>
    <vehicle id="V134134" depart="134.00" type="public_van">
        <route edges="-E1 E0"/>
    </vehicle>
    <vehicle id="R135135" depart="135.00" type="auto">
        <route edges="-E2 E1"/>
    </vehicle>
    <vehicle id="TK136136" depart="136.00" type="water_tanker">
        <route edges="-E1 E3"/>
    </vehicle>
    <vehicle id="A137137" depart="137.00" type="ambulance">
        <route edges="-E2 E1"/>
    </vehicle>
    <vehicle id="S138138" depart="138.00" type="scooter">
        <route edges="-E0 E1"/>
    </vehicle>
    <vehicle id="V139139" depart="139.00" type="jeep">
        <route edges="-E3 E2"/>
    </vehicle>
    <vehicle id="V140140" depart="140.00" type="public_van">
        <route edges="-E3 E2"/>
    </vehicle>
    <vehicle id="B141141" depart="141.00" type="school_bus">
        <route edges="-E1 E2"/>
    </vehicle>
    <vehicle id="C142142" depart="142.00" type="car">
        <route edges="-E0 E1"/>
    </vehicle>
    <vehicle id="143143" depart="143.00" type="bike">
        <route edges="-E1 E2"/>
    </vehicle>
    <vehicle id="R144144" depart="144.00" type="auto">
        <route edges="-E2 E1"/>
    </vehicle>
    <vehicle id="S145145" depart="145.00" type="scooter">
        <route edges="-E1 E0"/>
    </vehicle>
    <vehicle id="V146146" depart="146.00" type="public_van">
        <route edges="-E1 E3"/>
    </vehicle>
    <vehicle id="R147147" depart="147.00" type="auto">
        <route edges="-E3 E0"/>
    </vehicle>
    <vehicle id="C148148" depart="148.00" type="car">
        <route edges="-E0 E2"/>
    </vehicle>
    <vehicle id="C149149" depart="149.00" type="car">
        <route edges="-E2 E1"/>
    </vehicle>
    <vehicle id="R150150" depart="150.00" type="auto">
        <route edges="-E2 E0"/>
    </vehicle>
    <vehicle id="V151151" depart="151.00" type="public_van">
        <route edges="-E0 E1"/>
    </vehicle>
    <vehicle id="C152152" depart="152.00" type="car">
        <route edges="-E3 E0"/>
    </vehicle>
    <vehicle id="S153153" depart="153.00" type="scooter">
        <route edges="-E1 E2"/>
    </vehicle>
    <vehicle id="V154154" depart="154.00" type="jeep">
        <route edges="-E0 E2"/>
    </vehicle>
    <vehicle id="B155155" depart="155.00" type="school_bus">
        <route edges="-E1 E0"/>
    </vehicle>
    <vehicle id="V156156" depart="156.00" type="public_van">
        <route edges="-E2 E0"/>
    </vehicle>
    <vehicle id="V157157" depart="157.00" type="public_van">
        <route edges="-E0 E1"/>
    </vehicle>
    <vehicle id="R158158" depart="158.00" type="auto">
        <route edges="-E0 E3"/>
    </vehicle>
    <vehicle id="159159" depart="159.00" type="bike">
        <route edges="-E2 E0"/>
    </vehicle>
    <vehicle id="160160" depart="160.00" type="bike">
        <route edges="-E0 E3"/>
    </vehicle>
    <vehicle id="V161161" depart="161.00" type="school_van">
        <route edges="-E1 E3"/>
    </vehicle>
    <vehicle id="V162162" depart="162.00" type="school_van">
        <route edges="-E2 E3"/>
    </vehicle>
    <vehicle id="R163163" depart="163.00" type="auto">
        <route edges="-E2 E3"/>
    </vehicle>
    <vehicle id="V164164" depart="164.00" type="jeep">
        <route edges="-E3 E2"/>
    </vehicle>
    <vehicle id="C165165" depart="165.00" type="car">
        <route edges="-E3 E2"/>
    </vehicle>
    <vehicle id="R166166" depart="166.00" type="auto">
        <route edges="-E3 E2"/>
    </vehicle>
    <vehicle id="C167167" depart="167.00" type="car">
        <route edges="-E0 E2"/>
    </vehicle>
    <vehicle id="168168" depart="168.00" type="bike">
        <route edges="-E3 E2"/>
    </vehicle>
    <vehicle id="R169169" depart="169.00" type="auto">
        <route edges="-E2 E1"/>
    </vehicle>
    <vehicle id="V170170" depart="170.00" type="van">
        <route edges="-E0 E1"/>
    </vehicle>
    <vehicle id="R171171" depart="171.00" type="auto">
        <route edges="-E2 E0"/>
    </vehicle>
    <vehicle id="172172" depart="172.00" type="bike">
        <route edges="-E0 E2"/>
    </vehicle>
    <vehicle id="S173173" depart="173.00" type="scooter">
        <route edges="-E2 E0"/>
    </vehicle>
    <vehicle id="V174174" depart="174.00" type="jeep">
        <route edges="-E1 E2"/>
    </vehicle>
    <vehicle id="R175175" depart="175.00" type="auto">
        <route edges="-E1 E0"/>
    </vehicle>
    <vehicle id="V176176" depart="176.00" type="school_van">
        <route edges="-E1 E3"/>
    </vehicle>
    <vehicle id="V177177" depart="177.00" type="school_van">
        <route edges="-E1 E0"/>
    </vehicle>
    <vehicle id="178178" depart="178.00" type="bike">
        <route edges="-E1 E3"/>
    </vehicle>
    <vehicle id="V179179" depart="179.00" type="jeep">
        <route edges="-E1 E2"/>
    </vehicle>
    <vehicle id="B180180" depart="180.00" type="school_bus">
        <route edges="-E1 E0"/>
    </vehicle>
    <vehicle id="S181181" depart="181.00" type="scooter">
        <route edges="-E1 E2"/>
    </vehicle>
    <vehicle id="182182" depart="182.00" type="bike">
        <route edges="-E1 E0"/>
    </vehicle>
    <vehicle id="V183183" depart="183.00" type="van">
        <route edges="-E1 E0"/>
    </vehicle>
    <vehicle id="C184184" depart="184.00" type="car">
        <route edges="-E2 E0"/>
    </vehicle>
    <vehicle id="T185185" depart="185.00" type="truck">
        <route edges="-E1 E2"/>
    </vehicle>
    <vehicle id="TK186186" depart="186.00" type="milk_tanker">
        <route edges="-E0 E2"/>
    </vehicle>
    <vehicle id="V187187" depart="187.00" type="van">
        <route edges="-E0 E1"/>
    </vehicle>
    <vehicle id="V188188" depart="188.00" type="jeep">
        <route edges="-E0 E1"/>
    </vehicle>
    <vehicle id="S189189" depart="189.00" type="scooter">
        <route edges="-E0 E1"/>
    </vehicle>
    <vehicle id="A190190" depart="190.00" type="ambulance">
        <route edges="-E3 E1"/>
    </vehicle>
    <vehicle id="T191191" depart="191.00" type="truck">
        <route edges="-E1 E0"/>
    </vehicle>
    <vehicle id="192192" depart="192.00" type="bike">
        <route edges="-E0 E2"/>
    </vehicle>
    <vehicle id="S193193" depart="193.00" type="scooter">
        <route edges="-E3 E1"/>
    </vehicle>
    <vehicle id="194194" depart="194.00" type="bike">
        <route edges="-E2 E3"/>
    </vehicle>
    <vehicle id="195195" depart="195.00" type="bike">
        <route edges="-E2 E3"/>
    </vehicle>
    <vehicle id="S196196" depart="196.00" type="scooter">
        <route edges="-E3 E0"/>
    </vehicle>
    <vehicle id="S197197" depart="197.00" type="scooter">
        <route edges="-E0 E2"/>
    </vehicle>
    <vehicle id="S198198" depart="198.00" type="scooter">
        <route edges="-E2 E0"/>
    </vehicle>
    <vehicle id="S199199" depart="199.00" type="scooter">
        <route edges="-E2 E3"/>
    </vehicle>
    <vehicle id="C200200" depart="200.00" type="car">
        <route edges="-E0 E2"/>
    </vehicle>
    <vehicle id="V201201" depart="201.00" type="van">
        <route edges="-E2 E0"/>
    </vehicle>
    <vehicle id="C202202" depart="202.00" type="car">
        <route edges="-E1 E2"/>
    </vehicle>
    <vehicle id="R203203" depart="203.00" type="auto">
        <route edges="-E3 E1"/>
    </vehicle>
    <vehicle id="204204" depart="204.00" type="bike">
        <route edges="-E2 E0"/>
    </vehicle>
    <vehicle id="V205205" depart="205.00" type="public_van">
        <route edges="-E0 E3"/>
    </vehicle>
    <vehicle id="R206206" depart="206.00" type="auto">
        <route edges="-E3 E2"/>
    </vehicle>
    <vehicle id="A207207" depart="207.00" type="ambulance">
        <route edges="-E0 E3"/>
    </vehicle>
    <vehicle id="R208208" depart="208.00" type="auto">
        <route edges="-E3 E1"/>
    </vehicle>
    <vehicle id="V209209" depart="209.00" type="van">
        <route edges="-E2 E1"/>
    </vehicle>
    <vehicle id="TK210210" depart="210.00" type="water_tanker">
        <route edges="-E0 E3"/>
    </vehicle>
    <vehicle id="T211211" depart="211.00" type="truck">
        <route edges="-E2 E3"/>
    </vehicle>
    <vehicle id="V212212" depart="212.00" type="van">
        <route edges="-E2 E1"/>
    </vehicle>
    <vehicle id="TK213213" depart="213.00" type="oil_tanker">
        <route edges="-E2 E3"/>
    </vehicle>
    <vehicle id="C214214" depart="214.00" type="car">
        <route edges="-E1 E3"/>
    </vehicle>
    <vehicle id="215215" depart="215.00" type="bike">
        <route edges="-E2 E1"/>
    </vehicle>
    <vehicle id="S216216" depart="216.00" type="scooter">
        <route edges="-E1 E2"/>
    </vehicle>
    <vehicle id="C217217" depart="217.00" type="car">
        <route edges="-E1 E3"/>
    </vehicle>
    <vehicle id="C218218" depart="218.00" type="car">
        <route edges="-E3 E0"/>
    </vehicle>
    <vehicle id="219219" depart="219.00" type="bike">
        <route edges="-E3 E0"/>
    </vehicle>
    <vehicle id="C220220" depart="220.00" type="car">
        <route edges="-E1 E2"/>
    </vehicle>
    <vehicle id="C221221" depart="221.00" type="car">
        <route edges="-E1 E0"/>
    </vehicle>
    <vehicle id="A222222" depart="222.00" type="ambulance">
        <route edges="-E3 E0"/>
    </vehicle>
    <vehicle id="C223223" depart="223.00" type="car">
        <route edges="-E0 E3"/>
    </vehicle>
    <vehicle id="S224224" depart="224.00" type="scooter">
        <route edges="-E1 E3"/>
    </vehicle>
    <vehicle id="B225225" depart="225.00" type="school_bus">
        <route edges="-E2 E1"/>
    </vehicle>
    <vehicle id="226226" depart="226.00" type="bike">
        <route edges="-E0 E3"/>
    </vehicle>
    <vehicle id="227227" depart="227.00" type="bike">
        <route edges="-E0 E2"/>
    </vehicle>
    <vehicle id="B228228" depart="228.00" type="school_bus">
        <route edges="-E1 E3"/>
    </vehicle>
    <vehicle id="T229229" depart="229.00" type="truck">
        <route edges="-E1 E3"/>
    </vehicle>
    <vehicle id="C230230" depart="230.00" type="car">
        <route edges="-E2 E1"/>
    </vehicle>
    <vehicle id="B231231" depart="231.00" type="school_bus">
        <route edges="-E2 E1"/>
    </vehicle>
    <vehicle id="R232232" depart="232.00" type="auto">
        <route edges="-E2 E1"/>
    </vehicle>
    <vehicle id="C233233" depart="233.00" type="car">
        <route edges="-E2 E1"/>
    </vehicle>
    <vehicle id="V234234" depart="234.00" type="school_van">
        <route edges="-E2 E1"/>
    </vehicle>
    <vehicle id="V235235" depart="235.00" type="van">
        <route edges="-E1 E0"/>
    </vehicle>
    <vehicle id="C236236" depart="236.00" type="car">
        <route edges="-E2 E3"/>
    </vehicle>
    <vehicle id="V237237" depart="237.00" type="school_van">
        <route edges="-E1 E2"/>
    </vehicle>
    <vehicle id="V238238" depart="238.00" type="jeep">
        <route edges="-E3 E2"/>
    </vehicle>
    <vehicle id="R239239" depart="239.00" type="auto">
        <route edges="-E1 E0"/>
    </vehicle>
    <vehicle id="B240240" depart="240.00" type="school_bus">
        <route edges="-E2 E1"/>
    </vehicle>
    <vehicle id="241241" depart="241.00" type="bike">
        <route edges="-E3 E2"/>
    </vehicle>
    <vehicle id="B242242" depart="242.00" type="school_bus">
        <route edges="-E2 E0"/>
    </vehicle>
    <vehicle id="243243" depart="243.00" type="bike">
        <route edges="-E3 E1"/>
    </vehicle>
    <vehicle id="C244244" depart="244.00" type="car">
        <route edges="-E3 E2"/>
    </vehicle>
    <vehicle id="245245" depart="245.00" type="bike">
        <route edges="-E3 E1"/>
    </vehicle>
    <vehicle id="V246246" depart="246.00" type="school_van">
        <route edges="-E3 E1"/>
    </vehicle>
    <vehicle id="A247247" depart="247.00" type="ambulance">
        <route edges="-E0 E2"/>
    </vehicle>
    <vehicle id="V248248" depart="248.00" type="jeep">
        <route edges="-E2 E1"/>
    </vehicle>
    <vehicle id="R249249" depart="249.00" type="auto">
        <route edges="-E3 E0"/>
    </vehicle>
    <vehicle id="V250250" depart="250.00" type="van">
        <route edges="-E3 E2"/>
    </vehicle>
    <vehicle id="V251251" depart="251.00" type="school_van">
        <route edges="-E3 E0"/>
    </vehicle>
    <vehicle id="252252" depart="252.00" type="bike">
        <route edges="-E2 E1"/>
    </vehicle>
    <vehicle id="C253253" depart="253.00" type="car">
        <route edges="-E1 E3"/>
    </vehicle>
    <vehicle id="V254254" depart="254.00" type="school_van">
        <route edges="-E3 E1"/>
    </vehicle>
    <vehicle id="255255" depart="255.00" type="bike">
        <route edges="-E2 E3"/>
    </vehicle>
    <vehicle id="A256256" depart="256.00" type="ambulance">
        <route edges="-E2 E0"/>
    </vehicle>
    <vehicle id="257257" depart="257.00" type="bike">
        <route edges="-E0 E1"/>
    </vehicle>
    <vehicle id="C258258" depart="258.00" type="car">
        <route edges="-E2 E1"/>
    </vehicle>
    <vehicle id="C259259" depart="259.00" type="car">
        <route edges="-E0 E2"/>
    </vehicle>
    <vehicle id="C260260" depart="260.00" type="car">
        <route edges="-E2 E1"/>
    </vehicle>
    <vehicle id="R261261" depart="261.00" type="auto">
        <route edges="-E2 E3"/>
    </vehicle>
    <vehicle id="R262262" depart="262.00" type="auto">
        <route edges="-E3 E2"/>
    </vehicle>
    <vehicle id="C263263" depart="263.00" type="car">
        <route edges="-E2 E3"/>
    </vehicle>
    <vehicle id="B264264" depart="264.00" type="school_bus">
        <route edges="-E1 E2"/>
    </vehicle>
    <vehicle id="C265265" depart="265.00" type="car">
        <route edges="-E2 E3"/>
    </vehicle>
    <vehicle id="T266266" depart="266.00" type="truck">
        <route edges="-E3 E0"/>
    </vehicle>
    <vehicle id="S267267" depart="267.00" type="scooter">
        <route edges="-E0 E1"/>
    </vehicle>
    <vehicle id="R268268" depart="268.00" type="auto">
        <route edges="-E1 E0"/>
    </vehicle>
    <vehicle id="C269269" depart="269.00" type="car">
        <route edges="-E3 E2"/>
    </vehicle>
    <vehicle id="270270" depart="270.00" type="bike">
        <route edges="-E1 E0"/>
    </vehicle>
    <vehicle id="V271271" depart="271.00" type="van">
        <route edges="-E0 E1"/>
    </vehicle>
    <vehicle id="C272272" depart="272.00" type="car">
        <route edges="-E0 E3"/>
    </vehicle>
    <vehicle id="273273" depart="273.00" type="bike">
        <route edges="-E3 E2"/>
    </vehicle>
    <vehicle id="T274274" depart="274.00" type="truck">
        <route edges="-E2 E1"/>
    </vehicle>
    <vehicle id="C275275" depart="275.00" type="car">
        <route edges="-E0 E3"/>
    </vehicle>
    <vehicle id="R276276" depart="276.00" type="auto">