<?xml version="1.0" encoding="UTF-8"?>

<!-- generated on 2026-04-18T13:43:25.404282+05:30 by Eclipse SUMO netedit 1.26.0
<neteditConfiguration xmlns:xsi="http://www.w3.org/2001/XMLSchema-instance" xsi:noNamespaceSchemaLocation="http://sumo.dlr.de/xsd/neteditConfiguration.xsd">

    <input>
        <sumo-net-file value="C:\Users\Bhanu\TCS\network\city.net.xml"/>
    </input>

    <output>
        <output-file value="C:\Users\Bhanu\TCS\network\city.net.xml"/>
    </output>

    <processing>
        <offset.disable-normalization value="true"/>
    </processing>

    <junctions>
        <no-turnarounds value="true"/>
    </junctions>

    <netedit>
        <new-network value="false"/>
    </netedit>

</neteditConfiguration>
-->

<net version="1.20" junctionCornerDetail="5" limitTurnSpeed="5.50" xmlns:xsi="http://www.w3.org/2001/XMLSchema-instance" xsi:noNamespaceSchemaLocation="http://sumo.dlr.de/xsd/net_file.xsd">

    <location netOffset="0.00,0.00" convBoundary="-50.13,22.63,23.54,99.22" origBoundary="10000000000.00,10000000000.00,-10000000000.00,-10000000000.00" projParameter="!"/>

    <edge id=":J3_0" function="internal">
        <lane id=":J3_0_0" index="0" speed="6.51" length="9.03" shape="-14.68,68.33 -15.03,65.88 -16.08,64.13 -17.83,63.08 -20.28,62.73"/>
    </edge>
    <edge id=":J3_1" function="internal">
        <lane id=":J3_1_0" index="0" speed="13.89" length="14.50" shape="-14.68,68.33 -14.68,53.83"/>
    </edge>
    <edge id=":J3_2" function="internal">
        <lane id=":J3_2_0" index="0" speed="8.13" length="4.06" shape="-14.68,68.33 -14.13,64.48 -14.04,64.33"/>
    </edge>
    <edge id=":J3_12" function="internal">
        <lane id=":J3_12_0" index="0" speed="8.13" length="10.26" shape="-14.04,64.33 -12.47,61.70 -9.70,59.97 -5.83,59.30"/>
    </edge>
    <edge id=":J3_3" function="internal">
        <lane id=":J3_3_0" index="0" speed="6.66" length="9.27" shape="-5.73,62.50 -8.25,62.93 -10.04,64.05 -11.12,65.85 -11.48,68.33"/>
    </edge>
    <edge id=":J3_4" function="internal">
        <lane id=":J3_4_0" index="0" speed="13.89" length="14.55" shape="-5.73,62.50 -20.28,62.73"/>
    </edge>
    <edge id=":J3_5" function="internal">
        <lane id=":J3_5_0" index="0" speed="7.95" length="4.21" shape="-5.73,62.50 -9.65,62.06 -9.88,61.93"/>
    </edge>
    <edge id=":J3_13" function="internal">
        <lane id=":J3_13_0" index="0" speed="7.95" length="10.10" shape="-9.88,61.93 -12.44,60.47 -14.12,57.73 -14.68,53.83"/>
    </edge>
    <edge id=":J3_6" function="internal">
        <lane id=":J3_6_0" index="0" speed="6.44" length="9.03" shape="-11.48,53.83 -11.13,56.29 -10.07,58.02 -8.30,59.03 -5.83,59.30"/>
    </edge>
    <edge id=":J3_7" function="internal">
        <lane id=":J3_7_0" index="0" speed="13.89" length="14.50" shape="-11.48,53.83 -11.48,68.33"/>
    </edge>
    <edge id=":J3_8" function="internal">
        <lane id=":J3_8_0" index="0" speed="8.02" length="4.11" shape="-11.48,53.83 -12.03,57.72 -12.12,57.88"/>
    </edge>
    <edge id=":J3_14" function="internal">
        <lane id=":J3_14_0" index="0" speed="8.02" length="10.16" shape="-12.12,57.88 -13.68,60.50 -16.43,62.17 -20.28,62.73"/>
    </edge>
    <edge id=":J3_9" function="internal">
        <lane id=":J3_9_0" index="0" speed="6.53" length="9.11" shape="-20.28,59.53 -17.83,59.17 -16.08,58.10 -15.03,56.32 -14.68,53.83"/>
    </edge>
    <edge id=":J3_10" function="internal">
        <lane id=":J3_10_0" index="0" speed="13.89" length="14.45" shape="-20.28,59.53 -5.83,59.30"/>
    </edge>
    <edge id=":J3_11" function="internal">
        <lane id=":J3_11_0" index="0" speed="8.00" length="3.89" shape="-20.28,59.53 -16.43,60.08"/>
    </edge>
    <edge id=":J3_15" function="internal">
        <lane id=":J3_15_0" index="0" speed="8.00" length="10.30" shape="-16.43,60.08 -13.68,61.73 -12.03,64.48 -11.48,68.33"/>
    </edge>

    <edge id="-E0" from="J4" to="J3" priority="-1">
        <lane id="-E0_0" index="0" speed="13.89" length="30.89" shape="-14.68,99.22 -14.68,68.33"/>
    </edge>
    <edge id="-E1" from="J5" to="J3" priority="-1">
        <lane id="-E1_0" index="0" speed="13.89" length="29.34" shape="23.59,61.59 -5.73,62.50"/>
    </edge>
    <edge id="-E2" from="J6" to="J3" priority="-1">
        <lane id="-E2_0" index="0" speed="13.89" length="31.20" shape="-11.48,22.63 -11.48,53.83"/>
    </edge>
    <edge id="-E3" from="J7" to="J3" priority="-1">
        <lane id="-E3_0" index="0" speed="13.89" length="29.85" shape="-50.13,59.53 -20.28,59.53"/>
    </edge>
    <edge id="E0" from="J3" to="J4" priority="-1">
        <lane id="E0_0" index="0" speed="13.89" length="30.89" shape="-11.48,68.33 -11.48,99.22"/>
    </edge>
    <edge id="E1" from="J3" to="J5" priority="-1">
        <lane id="E1_0" index="0" speed="13.89" length="29.34" shape="-5.83,59.30 23.49,58.39"/>
    </edge>
    <edge id="E2" from="J3" to="J6" priority="-1">
        <lane id="E2_0" index="0" speed="13.89" length="31.20" shape="-14.68,53.83 -14.68,22.63"/>
    </edge>
    <edge id="E3" from="J3" to="J7" priority="-1">
        <lane id="E3_0" index="0" speed="13.89" length="29.85" shape="-20.28,62.73 -50.13,62.73"/>
    </edge>

    <tlLogic id="J3" type="static" programID="0" offset="0">
        <phase duration="42" state="GGgrrrGGgrrr"/>
        <phase duration="3"  state="yyyrrryyyrrr"/>
        <phase duration="42" state="rrrGGgrrrGGg"/>
        <phase duration="3"  state="rrryyyrrryyy"/>
    </tlLogic>

    <junction id="J3" type="traffic_light" x="-13.08" y="61.13" incLanes="-E0_0 -E1_0 -E2_0 -E3_0" intLanes=":J3_0_0 :J3_1_0 :J3_12_0 :J3_3_0 :J3_4_0 :J3_13_0 :J3_6_0 :J3_7_0 :J3_14_0 :J3_9_0 :J3_10_0 :J3_15_0" shape="-16.28,68.33 -9.88,68.33 -9.41,66.04 -8.83,65.22 -8.01,64.63 -6.97,64.26 -5.68,64.10 -5.88,57.70 -8.10,57.33 -8.88,56.80 -9.44,56.04 -9.77,55.05 -9.88,53.83 -16.28,53.83 -16.72,56.11 -17.28,56.90 -18.06,57.47 -19.06,57.82 -20.28,57.93 -20.28,64.33 -18.06,64.77 -17.28,65.33 -16.72,66.11 -16.39,67.11">
        <request index="0"  response="000000000000" foes="000100010000" cont="0"/>
        <request index="1"  response="100000100000" foes="111100110000" cont="0"/>
        <request index="2"  response="100111100000" foes="110111110000" cont="1"/>
        <request index="3"  response="000010000000" foes="100010000000" cont="0"/>
        <request index="4"  response="000110000111" foes="100110000111" cont="0"/>
        <request index="5"  response="111110000110" foes="111110000110" cont="1"/>
        <request index="6"  response="000000000000" foes="010000000100" cont="0"/>
        <request index="7"  response="100000100000" foes="110000111100" cont="0"/>
        <request index="8"  response="100000100011" foes="110000110111" cont="1"/>
        <request index="9"  response="000000000010" foes="000000100010" cont="0"/>
        <request index="10" response="000111000110" foes="000111100110" cont="0"/>
        <request index="11" response="000110011110" foes="000110111110" cont="1"/>
    </junction>
    <junction id="J4" type="dead_end" x="-13.08" y="99.22" incLanes="E0_0" intLanes="" shape="-13.08,99.22 -9.88,99.22 -13.08,99.22"/>
    <junction id="J5" type="dead_end" x="23.54" y="59.99" incLanes="E1_0" intLanes="" shape="23.54,59.99 23.44,56.79 23.54,59.99"/>
    <junction id="J6" type="dead_end" x="-13.08" y="22.63" incLanes="E2_0" intLanes="" shape="-13.08,22.63 -16.28,22.63 -13.08,22.63"/>
    <junction id="J7" type="dead_end" x="-50.13" y="61.13" incLanes="E3_0" intLanes="" shape="-50.13,61.13 -50.13,64.33 -50.13,61.13"/>

    <junction id=":J3_12_0" type="internal" x="-14.04" y="64.33" incLanes=":J3_2_0 -E2_0" intLanes=":J3_4_0 :J3_5_0 :J3_6_0 :J3_7_0 :J3_10_0 :J3_11_0"/>
    <junction id=":J3_13_0" type="internal" x="-9.88" y="61.93" incLanes=":J3_5_0 -E3_0" intLanes=":J3_1_0 :J3_2_0 :J3_7_0 :J3_8_0 :J3_9_0 :J3_10_0"/>
    <junction id=":J3_14_0" type="internal" x="-12.12" y="57.88" incLanes=":J3_8_0 -E0_0" intLanes=":J3_0_0 :J3_1_0 :J3_4_0 :J3_5_0 :J3_10_0 :J3_11_0"/>
    <junction id=":J3_15_0" type="internal" x="-16.43" y="60.08" incLanes=":J3_11_0 -E1_0" intLanes=":J3_1_0 :J3_2_0 :J3_3_0 :J3_4_0 :J3_7_0 :J3_8_0"/>

    <connection from="-E0" to="E3" fromLane="0" toLane="0" via=":J3_0_0" tl="J3" linkIndex="0" dir="r" state="O"/>
    <connection from="-E0" to="E2" fromLane="0" toLane="0" via=":J3_1_0" tl="J3" linkIndex="1" dir="s" state="O"/>
    <connection from="-E0" to="E1" fromLane="0" toLane="0" via=":J3_2_0" tl="J3" linkIndex="2" dir="l" state="o"/>
    <connection from="-E1" to="E0" fromLane="0" toLane="0" via=":J3_3_0" tl="J3" linkIndex="3" dir="r" state="o"/>
    <connection from="-E1" to="E3" fromLane="0" toLane="0" via=":J3_4_0" tl="J3" linkIndex="4" dir="s" state="o"/>
    <connection from="-E1" to="E2" fromLane="0" toLane="0" via=":J3_5_0" tl="J3" linkIndex="5" dir="l" state="o"/>
    <connection from="-E2" to="E1" fromLane="0" toLane="0" via=":J3_6_0" tl="J3" linkIndex="6" dir="r" state="O"/>
    <connection from="-E2" to="E0" fromLane="0" toLane="0" via=":J3_7_0" tl="J3" linkIndex="7" dir="s" state="O"/>
    <connection from="-E2" to="E3" fromLane="0" toLane="0" via=":J3_8_0" tl="J3" linkIndex="8" dir="l" state="o"/>
    <connection from="-E3" to="E2" fromLane="0" toLane="0" via=":J3_9_0" tl="J3" linkIndex="9" dir="r" state="o"/>
    <connection from="-E3" to="E1" fromLane="0" toLane="0" via=":J3_10_0" tl="J3" linkIndex="10" dir="s" state="o"/>
    <connection from="-E3" to="E0" fromLane="0" toLane="0" via=":J3_11_0" tl="J3" linkIndex="11" dir="l" state="o"/>

    <connection from=":J3_0" to="E3" fromLane="0" toLane="0" dir="r" state="M"/>
    <connection from=":J3_1" to="E2" fromLane="0" toLane="0" dir="s" state="M"/>
    <connection from=":J3_2" to="E1" fromLane="0" toLane="0" via=":J3_12_0" dir="l" state="m"/>
    <connection from=":J3_12" to="E1" fromLane="0" toLane="0" dir="l" state="M"/>
    <connection from=":J3_3" to="E0" fromLane="0" toLane="0" dir="r" state="M"/>
    <connection from=":J3_4" to="E3" fromLane="0" toLane="0" dir="s" state="M"/>
    <connection from=":J3_5" to="E2" fromLane="0" toLane="0" via=":J3_13_0" dir="l" state="m"/>
    <connection from=":J3_13" to="E2" fromLane="0" toLane="0" dir="l" state="M"/>
    <connection from=":J3_6" to="E1" fromLane="0" toLane="0" dir="r" state="M"/>
    <connection from=":J3_7" to="E0" fromLane="0" toLane="0" dir="s" state="M"/>
    <connection from=":J3_8" to="E3" fromLane="0" toLane="0" via=":J3_14_0" dir="l" state="m"/>
    <connection from=":J3_14" to="E3" fromLane="0" toLane="0" dir="l" state="M"/>
    <connection from=":J3_9" to="E2" fromLane="0" toLane="0" dir="r" state="M"/>
    <connection from=":J3_10" to="E1" fromLane="0" toLane="0" dir="s" state="M"/>
    <connection from=":J3_11" to="E0" fromLane="0" toLane="0" via=":J3_15_0" dir="l" state="m"/>
    <connection from=":J3_15" to="E0" fromLane="0" toLane="0" dir="l" state="M"/>

</net>
