<?xml version="1.0" encoding="UTF-8"?>

<!-- generated on 2026-05-01T23:53:22.769598+05:30 by Eclipse SUMO netedit 1.26.0
<neteditConfiguration xmlns:xsi="http://www.w3.org/2001/XMLSchema-instance" xsi:noNamespaceSchemaLocation="http://sumo.dlr.de/xsd/neteditConfiguration.xsd">

    <input>
        <sumo-net-file value="C:\Users\Bhanu\TCS\MultipleJunction\config\network.net.xml"/>
    </input>

    <output>
        <output-file value="C:\Users\Bhanu\TCS\MultipleJunction\config\network.net.xml"/>
    </output>

    <processing>
        <offset.disable-normalization value="true"/>
    </processing>

    <junctions>
        <no-turnarounds value="true"/>
    </junctions>

    <netedit>
        <new-network value="false"/>
    </netedit>

</neteditConfiguration>
-->

<net version="1.20" junctionCornerDetail="5" limitTurnSpeed="5.50" xmlns:xsi="http://www.w3.org/2001/XMLSchema-instance" xsi:noNamespaceSchemaLocation="http://sumo.dlr.de/xsd/net_file.xsd">

    <location netOffset="0.00,0.00" convBoundary="-427.34,-403.96,87.01,257.74" origBoundary="10000000000.00,10000000000.00,-10000000000.00,-10000000000.00" projParameter="!"/>

    <edge id=":J0_0" function="internal">
        <lane id=":J0_0_0" index="0" speed="6.63" length="9.25" shape="9.15,39.21 8.76,36.71 7.67,34.92 5.88,33.83 3.38,33.45"/>
    </edge>
    <edge id=":J0_1" function="internal">
        <lane id=":J0_1_0" index="0" speed="13.89" length="14.53" shape="9.15,39.21 9.01,24.68"/>
    </edge>
    <edge id=":J0_2" function="internal">
        <lane id=":J0_2_0" index="0" speed="7.97" length="4.10" shape="9.15,39.21 9.66,35.33 9.75,35.17"/>
    </edge>
    <edge id=":J0_12" function="internal">
        <lane id=":J0_12_0" index="0" speed="7.97" length="10.17" shape="9.75,35.17 11.29,32.56 14.05,30.91 17.94,30.39"/>
    </edge>
    <edge id=":J0_3" function="internal">
        <lane id=":J0_3_0" index="0" speed="6.46" length="9.03" shape="17.91,33.59 15.45,33.92 13.70,34.96 12.67,36.71 12.35,39.18"/>
    </edge>
    <edge id=":J0_4" function="internal">
        <lane id=":J0_4_0" index="0" speed="13.89" length="14.53" shape="17.91,33.59 3.38,33.45"/>
    </edge>
    <edge id=":J0_5" function="internal">
        <lane id=":J0_5_0" index="0" speed="8.08" length="4.10" shape="17.91,33.59 14.04,33.01 13.88,32.91"/>
    </edge>
    <edge id=":J0_13" function="internal">
        <lane id=":J0_13_0" index="0" speed="8.08" length="10.21" shape="13.88,32.91 11.27,31.33 9.59,28.55 9.01,24.68"/>
    </edge>
    <edge id=":J0_6" function="internal">
        <lane id=":J0_6_0" index="0" speed="6.60" length="9.21" shape="12.21,24.66 12.58,27.15 13.66,28.93 15.45,30.01 17.94,30.39"/>
    </edge>
    <edge id=":J0_7" function="internal">
        <lane id=":J0_7_0" index="0" speed="13.89" length="14.52" shape="12.21,24.66 12.35,39.18"/>
    </edge>
    <edge id=":J0_8" function="internal">
        <lane id=":J0_8_0" index="0" speed="7.97" length="4.06" shape="12.21,24.66 11.68,28.54 11.61,28.67"/>
    </edge>
    <edge id=":J0_14" function="internal">
        <lane id=":J0_14_0" index="0" speed="7.97" length="10.20" shape="11.61,28.67 10.03,31.30 7.27,32.94 3.38,33.45"/>
    </edge>
    <edge id=":J0_9" function="internal">
        <lane id=":J0_9_0" index="0" speed="6.47" length="9.03" shape="3.42,30.25 5.88,29.92 7.63,28.89 8.68,27.14 9.01,24.68"/>
    </edge>
    <edge id=":J0_10" function="internal">
        <lane id=":J0_10_0" index="0" speed="13.89" length="14.52" shape="3.42,30.25 17.94,30.39"/>
    </edge>
    <edge id=":J0_11" function="internal">
        <lane id=":J0_11_0" index="0" speed="8.10" length="4.08" shape="3.42,30.25 7.29,30.84 7.43,30.93"/>
    </edge>
    <edge id=":J0_15" function="internal">
        <lane id=":J0_15_0" index="0" speed="8.10" length="10.25" shape="7.43,30.93 10.06,32.53 11.75,35.31 12.35,39.18"/>
    </edge>
    <edge id=":J10_0" function="internal">
        <lane id=":J10_0_0" index="0" speed="13.89" length="0.30" shape="-184.18,-92.76 -184.18,-93.06"/>
    </edge>
    <edge id=":J10_1" function="internal">
        <lane id=":J10_1_0" index="0" speed="13.89" length="0.30" shape="-180.98,-93.10 -180.98,-92.80"/>
    </edge>
    <edge id=":J12_0" function="internal">
        <lane id=":J12_0_0" index="0" speed="6.08" length="7.53" shape="-292.04,159.55 -294.08,159.27 -295.56,158.41 -296.48,156.97 -296.86,154.95"/>
    </edge>
    <edge id=":J12_1" function="internal">
        <lane id=":J12_1_0" index="0" speed="3.91" length="2.51" shape="-293.66,154.81 -293.54,155.49 -293.23,155.97 -292.73,156.25 -292.05,156.35"/>
    </edge>
    <edge id=":J15_0" function="internal">
        <lane id=":J15_0_0" index="0" speed="3.91" length="2.54" shape="-187.29,-309.33 -187.40,-310.02 -187.70,-310.51 -188.20,-310.81 -188.88,-310.91"/>
    </edge>
    <edge id=":J15_1" function="internal">
        <lane id=":J15_1_0" index="0" speed="6.08" length="7.62" shape="-188.86,-314.11 -186.80,-313.80 -185.32,-312.91 -184.42,-311.44 -184.10,-309.38"/>
    </edge>
    <edge id=":J17_0" function="internal">
        <lane id=":J17_0_0" index="0" speed="6.81" length="9.59" shape="-316.19,-305.92 -316.66,-308.48 -317.84,-310.32 -319.72,-311.43 -322.31,-311.83"/>
    </edge>
    <edge id=":J17_1" function="internal">
        <lane id=":J17_1_0" index="0" speed="13.89" length="14.74" shape="-316.19,-305.92 -316.84,-320.65"/>
    </edge>
    <edge id=":J17_2" function="internal">
        <lane id=":J17_2_0" index="0" speed="7.92" length="4.09" shape="-316.19,-305.92 -315.79,-309.87 -315.73,-309.98"/>
    </edge>
    <edge id=":J17_12" function="internal">
        <lane id=":J17_12_0" index="0" speed="7.92" length="10.29" shape="-315.73,-309.98 -314.21,-312.68 -311.46,-314.35 -307.53,-314.89"/>
    </edge>
    <edge id=":J17_3" function="internal">
        <lane id=":J17_3_0" index="0" speed="6.40" length="9.04" shape="-307.55,-311.69 -310.02,-311.35 -311.75,-310.30 -312.74,-308.53 -312.99,-306.05"/>
    </edge>
    <edge id=":J17_4" function="internal">
        <lane id=":J17_4_0" index="0" speed="13.89" length="14.76" shape="-307.55,-311.69 -322.31,-311.83"/>
    </edge>
    <edge id=":J17_5" function="internal">
        <lane id=":J17_5_0" index="0" speed="8.25" length="4.15" shape="-307.55,-311.69 -311.46,-312.27 -311.63,-312.37"/>
    </edge>
    <edge id=":J17_13" function="internal">
        <lane id=":J17_13_0" index="0" speed="8.25" length="10.40" shape="-311.63,-312.37 -314.31,-313.96 -316.10,-316.75 -316.84,-320.65"/>
    </edge>
    <edge id=":J17_6" function="internal">
        <lane id=":J17_6_0" index="0" speed="6.81" length="9.58" shape="-313.64,-320.80 -313.16,-318.23 -311.98,-316.39 -310.10,-315.27 -307.53,-314.89"/>
    </edge>
    <edge id=":J17_7" function="internal">
        <lane id=":J17_7_0" index="0" speed="13.89" length="14.76" shape="-313.64,-320.80 -312.99,-306.05"/>
    </edge>
    <edge id=":J17_8" function="internal">
        <lane id=":J17_8_0" index="0" speed="7.90" length="4.13" shape="-313.64,-320.80 -314.03,-316.83 -314.10,-316.70"/>
    </edge>
    <edge id=":J17_14" function="internal">
        <lane id=":J17_14_0" index="0" speed="7.90" length="10.29" shape="-314.10,-316.70 -315.60,-314.02 -318.36,-312.35 -322.31,-311.83"/>
    </edge>
    <edge id=":J17_9" function="internal">
        <lane id=":J17_9_0" index="0" speed="6.39" length="9.04" shape="-322.27,-315.03 -319.80,-315.35 -318.07,-316.40 -317.08,-318.16 -316.84,-320.65"/>
    </edge>
    <edge id=":J17_10" function="internal">
        <lane id=":J17_10_0" index="0" speed="13.89" length="14.74" shape="-322.27,-315.03 -307.53,-314.89"/>
    </edge>
    <edge id=":J17_11" function="internal">
        <lane id=":J17_11_0" index="0" speed="8.25" length="4.13" shape="-322.27,-315.03 -318.35,-314.43 -318.21,-314.34"/>
    </edge>
    <edge id=":J17_15" function="internal">
        <lane id=":J17_15_0" index="0" speed="8.25" length="10.42" shape="-318.21,-314.34 -315.50,-312.73 -313.71,-309.94 -312.99,-306.05"/>
    </edge>
    <edge id=":J5_0" function="internal">
        <lane id=":J5_0_0" index="0" speed="13.89" length="14.39" shape="-56.51,32.76 -70.89,32.62"/>
    </edge>
    <edge id=":J5_1" function="internal">
        <lane id=":J5_1_0" index="0" speed="8.09" length="4.01" shape="-56.51,32.76 -60.31,32.17 -60.45,32.08"/>
    </edge>
    <edge id=":J5_6" function="internal">
        <lane id=":J5_6_0" index="0" speed="8.09" length="10.22" shape="-60.45,32.08 -63.05,30.48 -64.72,27.70 -65.33,23.83"/>
    </edge>
    <edge id=":J5_2" function="internal">
        <lane id=":J5_2_0" index="0" speed="6.62" length="9.17" shape="-62.13,23.77 -61.74,26.28 -60.66,28.08 -58.91,29.18 -56.47,29.56"/>
    </edge>
    <edge id=":J5_3" function="internal">
        <lane id=":J5_3_0" index="0" speed="7.96" length="14.29" shape="-62.13,23.77 -62.62,27.67 -64.24,30.44 -67.00,32.10 -70.89,32.62"/>
    </edge>
    <edge id=":J5_4" function="internal">
        <lane id=":J5_4_0" index="0" speed="6.45" length="9.03" shape="-70.87,29.42 -68.41,29.09 -66.66,28.05 -65.64,26.29 -65.33,23.83"/>
    </edge>
    <edge id=":J5_5" function="internal">
        <lane id=":J5_5_0" index="0" speed="13.89" length="14.40" shape="-70.87,29.42 -56.47,29.56"/>
    </edge>
    <edge id=":J7_0" function="internal">
        <lane id=":J7_0_0" index="0" speed="13.89" length="12.18" shape="-67.28,-89.32 -67.41,-92.64 -67.80,-95.40 -68.61,-98.05 -70.03,-101.03"/>
    </edge>
    <edge id=":J7_1" function="internal">
        <lane id=":J7_1_0" index="0" speed="7.97" length="3.79" shape="-67.28,-89.32 -66.81,-93.08"/>
    </edge>
    <edge id=":J7_6" function="internal">
        <lane id=":J7_6_0" index="0" speed="7.97" length="10.48" shape="-66.81,-93.08 -66.80,-93.21 -65.18,-95.99 -62.43,-97.65 -58.55,-98.20"/>
    </edge>
    <edge id=":J7_2" function="internal">
        <lane id=":J7_2_0" index="0" speed="6.47" length="9.03" shape="-58.55,-95.00 -61.01,-94.65 -62.75,-93.60 -63.78,-91.84 -64.08,-89.38"/>
    </edge>
    <edge id=":J7_3" function="internal">
        <lane id=":J7_3_0" index="0" speed="9.86" length="13.64" shape="-58.55,-95.00 -62.35,-95.38 -65.53,-96.51 -68.09,-98.39 -70.03,-101.03"/>
    </edge>
    <edge id=":J7_4" function="internal">
        <lane id=":J7_4_0" index="0" speed="8.59" length="10.21" shape="-67.22,-102.56 -65.79,-100.65 -63.87,-99.29 -61.46,-98.47 -58.55,-98.20"/>
    </edge>
    <edge id=":J7_5" function="internal">
        <lane id=":J7_5_0" index="0" speed="13.89" length="13.69" shape="-67.22,-102.56 -65.74,-99.35 -64.79,-96.19 -64.28,-92.93 -64.08,-89.38"/>
    </edge>
    <edge id=":J8_0" function="internal">
        <lane id=":J8_0_0" index="0" speed="13.89" length="14.44" shape="-182.45,37.47 -182.69,23.04"/>
    </edge>
    <edge id=":J8_1" function="internal">
        <lane id=":J8_1_0" index="0" speed="7.95" length="4.12" shape="-182.45,37.47 -181.97,33.57 -181.88,33.41"/>
    </edge>
    <edge id=":J8_6" function="internal">
        <lane id=":J8_6_0" index="0" speed="7.95" length="10.18" shape="-181.88,33.41 -180.35,30.79 -177.59,29.14 -173.69,28.61"/>
    </edge>
    <edge id=":J8_2" function="internal">
        <lane id=":J8_2_0" index="0" speed="6.45" length="9.03" shape="-173.72,31.81 -176.18,32.14 -177.93,33.19 -178.95,34.94 -179.25,37.41"/>
    </edge>
    <edge id=":J8_3" function="internal">
        <lane id=":J8_3_0" index="0" speed="8.07" length="14.24" shape="-173.72,31.81 -177.60,31.23 -180.39,29.58 -182.09,26.85 -182.69,23.04"/>
    </edge>
    <edge id=":J8_4" function="internal">
        <lane id=":J8_4_0" index="0" speed="6.60" length="9.16" shape="-179.49,23.00 -179.10,25.43 -178.01,27.18 -176.20,28.24 -173.69,28.61"/>
    </edge>
    <edge id=":J8_5" function="internal">
        <lane id=":J8_5_0" index="0" speed="13.89" length="14.41" shape="-179.49,23.00 -179.25,37.41"/>
    </edge>
    <edge id=":J9_0" function="internal">
        <lane id=":J9_0_0" index="0" speed="6.58" length="9.18" shape="-179.87,164.72 -180.26,162.24 -181.34,160.47 -183.13,159.41 -185.61,159.06"/>
    </edge>
    <edge id=":J9_1" function="internal">
        <lane id=":J9_1_0" index="0" speed="13.89" length="14.51" shape="-179.87,164.72 -180.12,150.21"/>
    </edge>
    <edge id=":J9_2" function="internal">
        <lane id=":J9_2_0" index="0" speed="7.96" length="4.06" shape="-179.87,164.72 -179.37,160.83 -179.30,160.72"/>
    </edge>
    <edge id=":J9_12" function="internal">
        <lane id=":J9_12_0" index="0" speed="7.96" length="10.22" shape="-179.30,160.72 -177.73,158.06 -174.97,156.41 -171.08,155.89"/>
    </edge>
    <edge id=":J9_3" function="internal">
        <lane id=":J9_3_0" index="0" speed="6.46" length="9.03" shape="-171.11,159.09 -173.57,159.42 -175.32,160.46 -176.35,162.22 -176.67,164.68"/>
    </edge>
    <edge id=":J9_4" function="internal">
        <lane id=":J9_4_0" index="0" speed="13.89" length="14.50" shape="-171.11,159.09 -185.61,159.06"/>
    </edge>
    <edge id=":J9_5" function="internal">
        <lane id=":J9_5_0" index="0" speed="8.12" length="4.05" shape="-171.11,159.09 -174.98,158.51 -175.10,158.44"/>
    </edge>
    <edge id=":J9_13" function="internal">
        <lane id=":J9_13_0" index="0" speed="8.12" length="10.28" shape="-175.10,158.44 -177.78,156.83 -179.49,154.07 -180.12,150.21"/>
    </edge>
    <edge id=":J9_6" function="internal">
        <lane id=":J9_6_0" index="0" speed="6.65" length="9.28" shape="-176.92,150.15 -176.51,152.64 -175.40,154.43 -173.59,155.51 -171.08,155.89"/>
    </edge>
    <edge id=":J9_7" function="internal">
        <lane id=":J9_7_0" index="0" speed="13.89" length="14.53" shape="-176.92,150.15 -176.67,164.68"/>
    </edge>
    <edge id=":J9_8" function="internal">
        <lane id=":J9_8_0" index="0" speed="7.97" length="4.10" shape="-176.92,150.15 -177.39,154.03 -177.49,154.20"/>
    </edge>
    <edge id=":J9_14" function="internal">
        <lane id=":J9_14_0" index="0" speed="7.97" length="10.15" shape="-177.49,154.20 -179.00,156.81 -181.74,158.49 -185.61,159.06"/>
    </edge>
    <edge id=":J9_9" function="internal">
        <lane id=":J9_9_0" index="0" speed="6.47" length="9.03" shape="-185.63,155.86 -183.18,155.50 -181.44,154.44 -180.42,152.68 -180.12,150.21"/>
    </edge>
    <edge id=":J9_10" function="internal">
        <lane id=":J9_10_0" index="0" speed="13.89" length="14.54" shape="-185.63,155.86 -171.08,155.89"/>
    </edge>
    <edge id=":J9_11" function="internal">
        <lane id=":J9_11_0" index="0" speed="8.06" length="4.13" shape="-185.63,155.86 -181.76,156.40 -181.57,156.51"/>
    </edge>
    <edge id=":J9_15" function="internal">
        <lane id=":J9_15_0" index="0" speed="8.06" length="10.17" shape="-181.57,156.51 -178.97,158.05 -177.28,160.81 -176.67,164.68"/>
    </edge>

    <edge id="-E0" from="J1" to="J0" priority="-1">
        <lane id="-E0_0" index="0" speed="13.89" length="52.30" shape="11.85,-27.64 12.21,24.66"/>
    </edge>
    <edge id="-E1" from="J2" to="J0" priority="-1">
        <lane id="-E1_0" index="0" speed="13.89" length="63.25" shape="81.16,34.11 17.91,33.59"/>
    </edge>
    <edge id="-E10" from="J14" to="J9" priority="-1">
        <lane id="-E10_0" index="0" speed="13.89" length="93.05" shape="-178.57,257.76 -179.87,164.72"/>
    </edge>
    <edge id="-E11" from="J15" to="J10" priority="-1">
        <lane id="-E11_0" index="0" speed="13.89" length="216.30" shape="-184.10,-309.38 -180.98,-93.10"/>
    </edge>
    <edge id="-E12" from="J17" to="J15" priority="-1">
        <lane id="-E12_0" index="0" speed="13.89" length="118.67" shape="-307.53,-314.89 -188.86,-314.11"/>
    </edge>
    <edge id="-E13" from="J18" to="J7" priority="-1">
        <lane id="-E13_0" index="0" speed="13.89" length="129.50" shape="-129.12,-216.30 -67.22,-102.56"/>
    </edge>
    <edge id="-E14" from="J19" to="J7" priority="-1">
        <lane id="-E14_0" index="0" speed="13.89" length="145.56" shape="87.01,-94.75 -58.55,-95.00"/>
    </edge>
    <edge id="-E15" from="J17" to="J12" priority="-1">
        <lane id="-E15_0" index="0" speed="13.89" length="461.27" shape="-312.99,-306.05 -293.66,154.81"/>
    </edge>
    <edge id="-E16" from="J21" to="J17" priority="-1">
        <lane id="-E16_0" index="0" speed="13.89" length="83.33" shape="-317.47,-404.03 -313.64,-320.80"/>
    </edge>
    <edge id="-E17" from="J22" to="J17" priority="-1">
        <lane id="-E17_0" index="0" speed="13.89" length="105.06" shape="-427.32,-316.25 -322.27,-315.03"/>
    </edge>
    <edge id="-E2" from="J4" to="J0" priority="-1">
        <lane id="-E2_0" index="0" speed="13.89" length="61.94" shape="9.88,101.15 9.15,39.21"/>
    </edge>
    <edge id="-E3" from="J5" to="J0" priority="-1">
        <lane id="-E3_0" index="0" speed="13.89" length="59.90" shape="-56.47,29.56 3.42,30.25"/>
    </edge>
    <edge id="-E4" from="J7" to="J5" priority="-1">
        <lane id="-E4_0" index="0" speed="13.89" length="113.17" shape="-64.08,-89.38 -62.13,23.77"/>
    </edge>
    <edge id="-E5" from="J8" to="J5" priority="-1">
        <lane id="-E5_0" index="0" speed="13.89" length="102.83" shape="-173.69,28.61 -70.87,29.42"/>
    </edge>
    <edge id="-E6" from="J9" to="J8" priority="-1">
        <lane id="-E6_0" index="0" speed="13.89" length="112.76" shape="-180.12,150.21 -182.45,37.47"/>
    </edge>
    <edge id="-E7" from="J10" to="J8" priority="-1">
        <lane id="-E7_0" index="0" speed="13.89" length="115.81" shape="-180.98,-92.80 -179.49,23.00"/>
    </edge>
    <edge id="-E8" from="J12" to="J9" priority="-1">
        <lane id="-E8_0" index="0" speed="13.89" length="106.43" shape="-292.05,156.35 -185.63,155.86"/>
    </edge>
    <edge id="-E9" from="J13" to="J9" priority="-1">
        <lane id="-E9_0" index="0" speed="13.89" length="120.02" shape="-51.09,160.09 -171.11,159.09"/>
    </edge>
    <edge id="E0" from="J0" to="J1" priority="-1">
        <lane id="E0_0" index="0" speed="13.89" length="52.30" shape="9.01,24.68 8.65,-27.62"/>
    </edge>
    <edge id="E1" from="J0" to="J2" priority="-1">
        <lane id="E1_0" index="0" speed="13.89" length="63.25" shape="17.94,30.39 81.18,30.91"/>
    </edge>
    <edge id="E10" from="J9" to="J14" priority="-1">
        <lane id="E10_0" index="0" speed="13.89" length="93.05" shape="-176.67,164.68 -175.37,257.72"/>
    </edge>
    <edge id="E11" from="J10" to="J15" priority="-1">
        <lane id="E11_0" index="0" speed="13.89" length="216.30" shape="-184.18,-93.06 -187.29,-309.33"/>
    </edge>
    <edge id="E12" from="J15" to="J17" priority="-1">
        <lane id="E12_0" index="0" speed="13.89" length="118.67" shape="-188.88,-310.91 -307.55,-311.69"/>
    </edge>
    <edge id="E13" from="J7" to="J18" priority="-1">
        <lane id="E13_0" index="0" speed="13.89" length="129.50" shape="-70.03,-101.03 -131.94,-214.78"/>
    </edge>
    <edge id="E14" from="J7" to="J19" priority="-1">
        <lane id="E14_0" index="0" speed="13.89" length="145.56" shape="-58.55,-98.20 87.01,-97.95"/>
    </edge>
    <edge id="E15" from="J12" to="J17" priority="-1">
        <lane id="E15_0" index="0" speed="13.89" length="461.27" shape="-296.86,154.95 -316.19,-305.92"/>
    </edge>
    <edge id="E16" from="J17" to="J21" priority="-1">
        <lane id="E16_0" index="0" speed="13.89" length="83.33" shape="-316.84,-320.65 -320.67,-403.89"/>
    </edge>
    <edge id="E17" from="J17" to="J22" priority="-1">
        <lane id="E17_0" index="0" speed="13.89" length="105.06" shape="-322.31,-311.83 -427.36,-313.05"/>
    </edge>
    <edge id="E2" from="J0" to="J4" priority="-1">
        <lane id="E2_0" index="0" speed="13.89" length="61.94" shape="12.35,39.18 13.08,101.11"/>
    </edge>
    <edge id="E3" from="J0" to="J5" priority="-1">
        <lane id="E3_0" index="0" speed="13.89" length="59.90" shape="3.38,33.45 -56.51,32.76"/>
    </edge>
    <edge id="E4" from="J5" to="J7" priority="-1">
        <lane id="E4_0" index="0" speed="13.89" length="113.17" shape="-65.33,23.83 -67.28,-89.32"/>
    </edge>
    <edge id="E5" from="J5" to="J8" priority="-1">
        <lane id="E5_0" index="0" speed="13.89" length="102.83" shape="-70.89,32.62 -173.72,31.81"/>
    </edge>
    <edge id="E6" from="J8" to="J9" priority="-1">
        <lane id="E6_0" index="0" speed="13.89" length="112.76" shape="-179.25,37.41 -176.92,150.15"/>
    </edge>
    <edge id="E7" from="J8" to="J10" priority="-1">
        <lane id="E7_0" index="0" speed="13.89" length="115.81" shape="-182.69,23.04 -184.18,-92.76"/>
    </edge>
    <edge id="E8" from="J9" to="J12" priority="-1">
        <lane id="E8_0" index="0" speed="13.89" length="106.43" shape="-185.61,159.06 -292.04,159.55"/>
    </edge>
    <edge id="E9" from="J9" to="J13" priority="-1">
        <lane id="E9_0" index="0" speed="13.89" length="120.02" shape="-171.08,155.89 -51.07,156.89"/>
    </edge>

    <tlLogic id="J0" type="static" programID="0" offset="0">
        <phase duration="42" state="rrrGGgrrrGGg"/>
        <phase duration="3"  state="rrryyyrrryyy"/>
        <phase duration="42" state="GGgrrrGGgrrr"/>
        <phase duration="3"  state="yyyrrryyyrrr"/>
    </tlLogic>
    <tlLogic id="J17" type="static" programID="0" offset="0">
        <phase duration="42" state="GGgrrrGGgrrr"/>
        <phase duration="3"  state="yyyrrryyyrrr"/>
        <phase duration="42" state="rrrGGgrrrGGg"/>
        <phase duration="3"  state="rrryyyrrryyy"/>
    </tlLogic>
    <tlLogic id="J7" type="static" programID="0" offset="0">
        <phase duration="42" state="GgrrGG"/>
        <phase duration="3"  state="yyrrGy"/>
        <phase duration="42" state="rrGGGr"/>
        <phase duration="3"  state="rryyGr"/>
    </tlLogic>
    <tlLogic id="J8" type="static" programID="0" offset="0">
        <phase duration="42" state="GgrrGG"/>
        <phase duration="3"  state="yyrrGy"/>
        <phase duration="42" state="rrGGGr"/>
        <phase duration="3"  state="rryyGr"/>
    </tlLogic>
    <tlLogic id="J9" type="static" programID="0" offset="0">
        <phase duration="42" state="GGgrrrGGgrrr"/>
        <phase duration="3"  state="yyyrrryyyrrr"/>
        <phase duration="42" state="rrrGGgrrrGGg"/>
        <phase duration="3"  state="rrryyyrrryyy"/>
    </tlLogic>

    <junction id="J0" type="traffic_light" x="10.66" y="31.93" incLanes="-E2_0 -E1_0 -E0_0 -E3_0" intLanes=":J0_0_0 :J0_1_0 :J0_12_0 :J0_3_0 :J0_4_0 :J0_13_0 :J0_6_0 :J0_7_0 :J0_14_0 :J0_9_0 :J0_10_0 :J0_15_0" shape="7.55,39.23 13.95,39.16 14.36,36.94 14.91,36.16 15.68,35.62 16.68,35.29 17.90,35.19 17.95,28.79 15.66,28.31 14.86,27.74 14.28,26.93 13.93,25.90 13.81,24.65 7.41,24.69 6.98,26.91 6.43,27.68 5.66,28.23 4.66,28.55 3.44,28.65 3.36,35.05 5.67,35.53 6.48,36.12 7.06,36.93 7.42,37.97">
        <request index="0"  response="000000010000" foes="000100010000" cont="0"/>
        <request index="1"  response="111000110000" foes="111100110000" cont="0"/>
        <request index="2"  response="110011110000" foes="110111110000" cont="1"/>
        <request index="3"  response="000000000000" foes="100010000000" cont="0"/>
        <request index="4"  response="000100000100" foes="100110000111" cont="0"/>
        <request index="5"  response="111100000100" foes="111110000110" cont="1"/>
        <request index="6"  response="010000000000" foes="010000000100" cont="0"/>
        <request index="7"  response="110000111000" foes="110000111100" cont="0"/>
        <request index="8"  response="110000110111" foes="110000110111" cont="1"/>
        <request index="9"  response="000000000000" foes="000000100010" cont="0"/>
        <request index="10" response="000100000100" foes="000111100110" cont="0"/>
        <request index="11" response="000100011100" foes="000110111110" cont="1"/>
    </junction>
    <junction id="J1" type="dead_end" x="10.25" y="-27.63" incLanes="E0_0" intLanes="" shape="10.25,-27.63 7.05,-27.61 10.25,-27.63"/>
    <junction id="J10" type="priority" x="-182.58" y="-92.93" incLanes="E7_0 -E11_0" intLanes=":J10_0_0 :J10_1_0" shape="-185.78,-92.74 -179.38,-92.82 -179.38,-93.13 -185.78,-93.03">
        <request index="0" response="00" foes="00" cont="0"/>
        <request index="1" response="00" foes="00" cont="0"/>
    </junction>
    <junction id="J12" type="priority" x="-295.13" y="157.96" incLanes="E8_0 -E15_0" intLanes=":J12_0_0 :J12_1_0" shape="-292.03,161.15 -292.06,154.75 -298.46,155.01 -297.63,158.43 -296.72,159.63 -295.49,160.48 -293.92,160.98">
        <request index="0" response="00" foes="00" cont="0"/>
        <request index="1" response="00" foes="00" cont="0"/>
    </junction>
    <junction id="J13" type="dead_end" x="-51.08" y="158.49" incLanes="E9_0" intLanes="" shape="-51.08,158.49 -51.05,155.29 -51.08,158.49"/>
    <junction id="J14" type="dead_end" x="-176.97" y="257.74" incLanes="E10_0" intLanes="" shape="-176.97,257.74 -173.77,257.70 -176.97,257.74"/>
    <junction id="J15" type="priority" x="-185.74" y="-312.49" incLanes="E11_0 -E12_0" intLanes=":J15_0_0 :J15_1_0" shape="-188.89,-309.31 -182.50,-309.40 -183.24,-312.89 -184.13,-314.11 -185.36,-314.99 -186.94,-315.52 -188.85,-315.71">
        <request index="0" response="00" foes="00" cont="0"/>
        <request index="1" response="00" foes="00" cont="0"/>
    </junction>
    <junction id="J17" type="traffic_light" x="-314.90" y="-313.34" incLanes="E15_0 E12_0 -E16_0 -E17_0" intLanes=":J17_0_0 :J17_1_0 :J17_12_0 :J17_3_0 :J17_4_0 :J17_13_0 :J17_6_0 :J17_7_0 :J17_14_0 :J17_9_0 :J17_10_0 :J17_15_0" shape="-317.79,-305.85 -311.39,-306.12 -311.04,-308.34 -310.52,-309.11 -309.77,-309.66 -308.78,-309.99 -307.56,-310.09 -307.52,-316.49 -309.94,-316.99 -310.81,-317.60 -311.45,-318.45 -311.86,-319.54 -312.04,-320.87 -318.44,-320.58 -318.78,-318.36 -319.30,-317.59 -320.05,-317.04 -321.04,-316.72 -322.25,-316.63 -322.33,-310.23 -319.89,-309.72 -319.01,-309.11 -318.37,-308.26 -317.97,-307.18">
        <request index="0"  response="000000000000" foes="000100010000" cont="0"/>
        <request index="1"  response="100000100000" foes="111100110000" cont="0"/>
        <request index="2"  response="100011100000" foes="110111110000" cont="1"/>
        <request index="3"  response="000010000000" foes="100010000000" cont="0"/>
        <request index="4"  response="000110000111" foes="100110000111" cont="0"/>
        <request index="5"  response="011110000110" foes="111110000110" cont="1"/>
        <request index="6"  response="000000000000" foes="010000000100" cont="0"/>
        <request index="7"  response="100000100000" foes="110000111100" cont="0"/>
        <request index="8"  response="100000100111" foes="110000110111" cont="1"/>
        <request index="9"  response="000000000010" foes="000000100010" cont="0"/>
        <request index="10" response="000111000110" foes="000111100110" cont="0"/>
        <request index="11" response="000110111110" foes="000110111110" cont="1"/>
    </junction>
    <junction id="J18" type="dead_end" x="-130.53" y="-215.54" incLanes="E13_0" intLanes="" shape="-130.53,-215.54 -133.34,-214.01 -130.53,-215.54"/>
    <junction id="J19" type="dead_end" x="87.01" y="-96.35" incLanes="E14_0" intLanes="" shape="87.01,-96.35 87.02,-99.55 87.01,-96.35"/>
    <junction id="J2" type="dead_end" x="81.17" y="32.51" incLanes="E1_0" intLanes="" shape="81.17,32.51 81.20,29.31 81.17,32.51"/>
    <junction id="J21" type="dead_end" x="-319.07" y="-403.96" incLanes="E16_0" intLanes="" shape="-319.07,-403.96 -322.27,-403.81 -319.07,-403.96"/>
    <junction id="J22" type="dead_end" x="-427.34" y="-314.65" incLanes="E17_0" intLanes="" shape="-427.34,-314.65 -427.38,-311.45 -427.34,-314.65"/>
    <junction id="J4" type="dead_end" x="11.48" y="101.13" incLanes="E2_0" intLanes="" shape="11.48,101.13 14.68,101.09 11.48,101.13"/>
    <junction id="J5" type="priority" x="-63.60" y="31.08" incLanes="E3_0 -E4_0 -E5_0" intLanes=":J5_0_0 :J5_6_0 :J5_2_0 :J5_3_0 :J5_4_0 :J5_5_0" shape="-56.53,34.36 -56.45,27.96 -58.68,27.47 -59.47,26.88 -60.04,26.07 -60.39,25.02 -60.53,23.74 -66.93,23.85 -67.33,26.07 -67.87,26.85 -68.64,27.40 -69.64,27.72 -70.86,27.82 -70.91,34.22">
        <request index="0" response="000000" foes="001000" cont="0"/>
        <request index="1" response="110000" foes="111000" cont="1"/>
        <request index="2" response="100000" foes="100000" cont="0"/>
        <request index="3" response="100011" foes="100011" cont="0"/>
        <request index="4" response="000000" foes="000010" cont="0"/>
        <request index="5" response="000000" foes="001110" cont="0"/>
    </junction>
    <junction id="J7" type="traffic_light" x="-65.81" y="-96.61" incLanes="E4_0 -E14_0 -E13_0" intLanes=":J7_0_0 :J7_6_0 :J7_2_0 :J7_3_0 :J7_4_0 :J7_5_0" shape="-68.88,-89.29 -62.48,-89.41 -62.08,-91.63 -61.54,-92.40 -60.77,-92.96 -59.77,-93.29 -58.55,-93.40 -58.54,-99.80 -61.74,-100.19 -63.04,-100.68 -64.16,-101.37 -65.09,-102.25 -65.82,-103.32 -71.44,-100.26 -70.32,-98.12 -69.60,-96.47 -69.19,-95.03 -68.99,-93.54 -68.92,-91.72">
        <request index="0" response="000000" foes="001000" cont="0"/>
        <request index="1" response="110000" foes="111000" cont="1"/>
        <request index="2" response="100000" foes="100000" cont="0"/>
        <request index="3" response="100011" foes="100011" cont="0"/>
        <request index="4" response="000000" foes="000010" cont="0"/>
        <request index="5" response="000000" foes="001110" cont="0"/>
    </junction>
    <junction id="J8" type="traffic_light" x="-181.00" y="30.15" incLanes="-E6_0 E5_0 -E7_0" intLanes=":J8_0_0 :J8_6_0 :J8_2_0 :J8_3_0 :J8_4_0 :J8_5_0" shape="-184.05,37.51 -177.65,37.38 -177.25,35.16 -176.71,34.38 -175.95,33.83 -174.95,33.51 -173.73,33.41 -173.68,27.01 -176.00,26.55 -176.81,25.98 -177.40,25.20 -177.76,24.20 -177.89,22.98 -184.29,23.06">
        <request index="0" response="000000" foes="001000" cont="0"/>
        <request index="1" response="110000" foes="111000" cont="1"/>
        <request index="2" response="100000" foes="100000" cont="0"/>
        <request index="3" response="100011" foes="100011" cont="0"/>